#!/usr/bin/env python3

import argparse
import requests
import re
from lxml import html
from requests.sessions import session

# Print iterations progress
def printProgressBar (iteration, total, prefix = '', suffix = '', decimals = 1, length = 100, fill = '█', printEnd = "\r"):
    """
    Call in a loop to create terminal progress bar
    @params:
        iteration   - Required  : current iteration (Int)
        total       - Required  : total iterations (Int)
        prefix      - Optional  : prefix string (Str)
        suffix      - Optional  : suffix string (Str)
        decimals    - Optional  : positive number of decimals in percent complete (Int)
        length      - Optional  : character length of bar (Int)
        fill        - Optional  : bar fill character (Str)
        printEnd    - Optional  : end character (e.g. "\r", "\r\n") (Str)
    """
    percent = ("{0:." + str(decimals) + "f}").format(100 * (iteration / float(total)))
    filledLength = int(length * iteration // total)
    bar = fill * filledLength + '-' * (length - filledLength)
    print(f'\r{prefix} |{bar}| {percent}% {suffix}', end = printEnd)
    # Print New Line on Complete
    if iteration == total: 
        print()

#
# Given an http session, make a request to USCIS and grab the status text based on XPath
#
def checkCaseStatus(session, receipt_number):
    caseInfo = {}
    data = {'data': 'changeLocale',
            'appReceiptNum': receipt_number,
            'initCaseSearch': 'CHECK STATUS'}
    page = session.post(
        'https://egov.uscis.gov/casestatus/mycasestatus.do', data=data)
    tree = html.fromstring(page.content)
    detail = extractCaseDetail(tree)
    headline = extractHeadline(tree)
    
    caseInfo['status'] = headline
    caseInfo['lastAction'] = inferLastAction(detail)
    caseInfo['formNumber'] = inferFormNumber(detail)
    caseInfo['stage'] = inferStatus(headline)
    return caseInfo

def extractHeadline(tree):
    status = tree.xpath(
        '/html/body/div[2]/form/div/div[1]/div/div/div[2]/div[3]/h1/text()')
    return status[0]

def extractCaseDetail(tree):
    detail = tree.xpath(
        '/html/body/div[2]/form/div/div[1]/div/div/div[2]/div[3]/p/text()')
    return detail[0]

def inferLastAction(detail):
    matchDate = re.search(r'((January|February|March|April|May|June|July|August|September|October|November|December)[ ][0-9]{1,2}[, ]{2}[0-9]{4})', detail)
    return  matchDate.group(0) if matchDate else '---'

def inferFormNumber(detail):
    matchForm = re.search(r'(Form I-[0-9]{3})', detail)
    return matchForm.group(0) if matchForm else '---'

def inferStatus(detail):
    approved = re.search(r'(Approved|Card)', detail)
    if approved:
        return 'Approved'
    else:
        interview = re.search(r'(Interview)', detail)
        if interview:
            return "Interview"
        else:
            rfe = re.search(r'(Evidence)', detail)
            if rfe:
                return "RFE"
            else:
                closed = re.search(r'(Closed|Denied)', detail)
                if closed:
                    return "Closed"
                else:
                    return "In Progress"


#
# Validate the given receipt number based on the pattern of known processing center codes and Receipt Number format 
#
def validateReceiptNum(r_num):
    matchObj = re.match(
        r'(EAC|IOE|LIN|MSC|NBC|NSC|SRC|TSC|VSC|WAC|YSC)([0-9]{2})([0-9]{3})([0-9]{5})', r_num, re.M | re.I)
    return True if matchObj else False

#
# Validate that ranges are sensible if the query provides a range of reciept numbers.
#
def validateRange(r_start, r_end):
    if validateReceiptNum(r_start) & validateReceiptNum(r_end):
        return True
    else:
        return False


def getReceiptRange(r_start, r_end):
    receipt_range = []
    matchRangeStart = re.match(
        r'(EAC|IOE|LIN|MSC|NBC|NSC|SRC|TSC|VSC|WAC|YSC)([0-9]{2})([0-9]{3})([0-9]{5})', r_start, re.M | re.I)
    matchRangeEnd = re.match(
        r'(EAC|IOE|LIN|MSC|NBC|NSC|SRC|TSC|VSC|WAC|YSC)([0-9]{2})([0-9]{3})([0-9]{5})', r_end, re.M | re.I)
    try:
        center = matchRangeStart.group(1)
        center_end = matchRangeStart.group(1)
        rangeStart = int(matchRangeStart.group(
            2)+matchRangeStart.group(3)+matchRangeStart.group(4))
        rangeEnd = int(matchRangeEnd.group(
            2)+matchRangeEnd.group(3)+matchRangeEnd.group(4))
        if((rangeStart <= rangeEnd) & (center == center_end)):
            for num in range(rangeStart, rangeEnd+1):
                receipt_range.append(center+str(num))
    except Exception:
        print("Invalid range. Check receipt numbers.")
    return receipt_range

def processReceipts(receipt_numbers):
    with requests.Session() as s:
        res = s.get('https://egov.uscis.gov/casestatus/landing.do')
        status_dict = {}
        printProgressBar(0, len(receipt_numbers), prefix = 'Progress:', suffix = 'Complete', length = 50)
        for i,receipt in enumerate(sorted(set(receipt_numbers))):
            # cprint('res: {}'.format(res.text))
            if validateReceiptNum(receipt):
                status = checkCaseStatus(
                    session=s, receipt_number=str(receipt))
            else:
                status = 'Invalid Receipt Number'
            status_dict[receipt] = status
            printProgressBar(i + 1, len(receipt_numbers), prefix = 'Progress:', suffix = 'Complete', length = 50)
        return status_dict


# Setup vars
receipt_numbers = []

# Setup args argParser
argParser = argparse.ArgumentParser(description='Check status of USCIS cases.')
argParser.add_argument('receipt_numbers', metavar='receipt_numbers', nargs='*',
                    help='enter the receipt numbers to check for')

argParser.add_argument('-r', '--range', dest='receipt_range', metavar=('receipt_num_start', 'receipt_num_end'), nargs=2,
                    help='enter the receipt number range')
args = argParser.parse_args()

if args.receipt_range:
    validateRange(args.receipt_range[0], args.receipt_range[1])
    num_range = getReceiptRange(args.receipt_range[0], args.receipt_range[1])
    receipt_numbers.extend(num_range)

if(args.receipt_numbers):
    receipt_numbers.extend(args.receipt_numbers)

if receipt_numbers:
    caseStatus = processReceipts(receipt_numbers)
    print("{:<15} {:<50} {:<15} {:<25} {:<10}".format('Receipt Number', 'Status', 'Stage', 'Last Action', 'Case Type'))
    print("{:<15} {:<50} {:<15} {:<25} {:<10}".format('---------------', '---------------------------------------------','-----------','------------------','----------'))
    for receipt_num,status in caseStatus.items():
        print("{:<15} {:<50} {:<15} {:<25} {:<10}".format(receipt_num, status['status'], status['stage'], status['lastAction'], status['formNumber']))
else:
    print('No valid receipt numbers')
    argParser.print_help()
